dan267.sdf
  MOE2004           3D

 33 32  0  0  1  0  0  0  0  0999 V2000
    5.1670    0.2890    0.8510 C   0  0  0  0  0  0  0  0  0  0  0  0
    5.8160    0.6480    0.0570 H   0  0  0  0  0  0  0  0  0  0  0  0
    5.6300    0.0590    1.8050 H   0  0  0  0  0  0  0  0  0  0  0  0
    3.8520    0.1330    0.6750 C   0  0  0  0  0  0  0  0  0  0  0  0
    3.2450   -0.2170    1.4970 H   0  0  0  0  0  0  0  0  0  0  0  0
    3.2380    0.4630   -0.6200 C   0  0  0  0  0  0  0  0  0  0  0  0
    3.8390    1.0920   -1.4820 O   0  0  0  0  0  0  0  0  0  0  0  0
    1.9560    0.0430   -0.8250 O   0  0  0  0  0  0  0  0  0  0  0  0
    1.2340   -0.8180    0.0750 C   0  0  0  0  0  0  0  0  0  0  0  0
    1.0500   -0.2880    1.0150 H   0  0  0  0  0  0  0  0  0  0  0  0
    1.8380   -1.7110    0.2790 H   0  0  0  0  0  0  0  0  0  0  0  0
   -0.0970   -1.2390   -0.5750 C   0  0  3  0  0  0  0  0  0  0  0  0
   -0.9410   -0.0270   -1.0410 C   0  0  0  0  0  0  0  0  0  0  0  0
   -1.8090   -0.3860   -1.6040 H   0  0  0  0  0  0  0  0  0  0  0  0
   -0.3580    0.5590   -1.7620 H   0  0  0  0  0  0  0  0  0  0  0  0
   -1.4180    0.9040    0.0800 C   0  0  0  0  0  0  0  0  0  0  0  0
   -0.5600    1.3020    0.6300 H   0  0  0  0  0  0  0  0  0  0  0  0
   -2.0320    0.3480    0.7960 H   0  0  0  0  0  0  0  0  0  0  0  0
   -2.2350    2.0700   -0.4800 C   0  0  0  0  0  0  0  0  0  0  0  0
   -3.1050    1.6880   -1.0250 H   0  0  0  0  0  0  0  0  0  0  0  0
   -1.6310    2.6390   -1.1950 H   0  0  0  0  0  0  0  0  0  0  0  0
   -2.7080    3.0010    0.6240 C   0  0  0  0  0  0  0  0  0  0  0  0
   -3.2890    3.8270    0.2020 H   0  0  0  0  0  0  0  0  0  0  0  0
   -3.3450    2.4710    1.3390 H   0  0  0  0  0  0  0  0  0  0  0  0
   -1.8610    3.4270    1.1700 H   0  0  0  0  0  0  0  0  0  0  0  0
   -0.8460   -2.2040    0.3680 C   0  0  0  0  0  0  0  0  0  0  0  0
   -1.0680   -1.7160    1.3230 H   0  0  0  0  0  0  0  0  0  0  0  0
   -0.1870   -3.0480    0.6050 H   0  0  0  0  0  0  0  0  0  0  0  0
   -2.1340   -2.7660   -0.2170 C   0  0  0  0  0  0  0  0  0  0  0  0
   -2.8950   -1.9900   -0.3360 H   0  0  0  0  0  0  0  0  0  0  0  0
   -1.9550   -3.2300   -1.1920 H   0  0  0  0  0  0  0  0  0  0  0  0
   -2.5470   -3.5300    0.4490 H   0  0  0  0  0  0  0  0  0  0  0  0
    0.1560   -1.7930   -1.4880 H   0  0  0  0  0  0  0  0  0  0  0  0
  1  2  1  0  0  0  0
  1  3  1  0  0  0  0
  1  4  2  0  0  0  0
  4  5  1  0  0  0  0
  4  6  1  0  0  0  0
  6  7  2  0  0  0  0
  6  8  1  0  0  0  0
  8  9  1  0  0  0  0
  9 10  1  0  0  0  0
  9 11  1  0  0  0  0
  9 12  1  0  0  0  0
 12 13  1  0  0  0  0
 12 26  1  0  0  0  0
 12 33  1  0  0  0  0
 13 14  1  0  0  0  0
 13 15  1  0  0  0  0
 13 16  1  0  0  0  0
 16 17  1  0  0  0  0
 16 18  1  0  0  0  0
 16 19  1  0  0  0  0
 19 20  1  0  0  0  0
 19 21  1  0  0  0  0
 19 22  1  0  0  0  0
 22 23  1  0  0  0  0
 22 24  1  0  0  0  0
 22 25  1  0  0  0  0
 26 27  1  0  0  0  0
 26 28  1  0  0  0  0
 26 29  1  0  0  0  0
 29 30  1  0  0  0  0
 29 31  1  0  0  0  0
 29 32  1  0  0  0  0
M  END
$$$$
