dan259.sdf
  MOE2004           3D

 24 24  0  0  0  0  0  0  0  0999 V2000
    2.0740   -1.3800    0.2030 C   0  0  0  0  0  0  0  0  0  0  0  0
    2.0870   -2.4580    0.3550 H   0  0  0  0  0  0  0  0  0  0  0  0
    3.2820   -0.6900    0.1060 C   0  0  0  0  0  0  0  0  0  0  0  0
    4.2230   -1.2270    0.1880 H   0  0  0  0  0  0  0  0  0  0  0  0
    3.2830    0.6870   -0.1050 C   0  0  0  0  0  0  0  0  0  0  0  0
    4.2250    1.2230   -0.1880 H   0  0  0  0  0  0  0  0  0  0  0  0
    2.0760    1.3800   -0.2010 C   0  0  0  0  0  0  0  0  0  0  0  0
    2.0910    2.4570   -0.3530 H   0  0  0  0  0  0  0  0  0  0  0  0
    0.8590    0.6930   -0.0850 C   0  0  0  0  0  0  0  0  0  0  0  0
    0.8590   -0.6910    0.0880 C   0  0  0  0  0  0  0  0  0  0  0  0
   -0.3560   -1.4940    0.1370 C   0  0  0  0  0  0  0  0  0  0  0  0
   -0.5470   -2.3820    0.9550 O   0  0  0  0  0  0  0  0  0  0  0  0
   -1.1620   -1.1520   -0.9030 O   0  0  0  0  0  0  0  0  0  0  0  0
   -2.3760   -1.9020   -0.9720 C   0  0  0  0  0  0  0  0  0  0  0  0
   -2.9650   -1.7660   -0.0590 H   0  0  0  0  0  0  0  0  0  0  0  0
   -2.9590   -1.5300   -1.8180 H   0  0  0  0  0  0  0  0  0  0  0  0
   -2.1620   -2.9630   -1.1390 H   0  0  0  0  0  0  0  0  0  0  0  0
   -0.3550    1.4970   -0.1350 C   0  0  0  0  0  0  0  0  0  0  0  0
   -0.5420    2.3900   -0.9480 O   0  0  0  0  0  0  0  0  0  0  0  0
   -1.1640    1.1510    0.9010 O   0  0  0  0  0  0  0  0  0  0  0  0
   -2.3790    1.9010    0.9690 C   0  0  0  0  0  0  0  0  0  0  0  0
   -2.9670    1.7640    0.0560 H   0  0  0  0  0  0  0  0  0  0  0  0
   -2.9630    1.5290    1.8150 H   0  0  0  0  0  0  0  0  0  0  0  0
   -2.1650    2.9620    1.1350 H   0  0  0  0  0  0  0  0  0  0  0  0
  1  2  1  0  0  0  0
  1  3  1  0  0  0  0
  1 10  2  0  0  0  0
  3  4  1  0  0  0  0
  3  5  2  0  0  0  0
  5  6  1  0  0  0  0
  5  7  1  0  0  0  0
  7  8  1  0  0  0  0
  7  9  2  0  0  0  0
  9 10  1  0  0  0  0
  9 18  1  0  0  0  0
 10 11  1  0  0  0  0
 11 12  2  0  0  0  0
 11 13  1  0  0  0  0
 13 14  1  0  0  0  0
 14 15  1  0  0  0  0
 14 16  1  0  0  0  0
 14 17  1  0  0  0  0
 18 19  2  0  0  0  0
 18 20  1  0  0  0  0
 20 21  1  0  0  0  0
 21 22  1  0  0  0  0
 21 23  1  0  0  0  0
 21 24  1  0  0  0  0
M  END
$$$$
