dan194.sdf
  MOE2004           3D

 22 21  0  0  0  0  0  0  0  0999 V2000
   -3.6330    0.7020    0.2700 O   0  0  0  0  0  0  0  0  0  0  0  0
   -3.4760    1.0450    1.1660 H   0  0  0  0  0  0  0  0  0  0  0  0
   -2.9520   -0.5420    0.1610 C   0  0  0  0  0  0  0  0  0  0  0  0
   -3.1250   -0.9390   -0.8440 H   0  0  0  0  0  0  0  0  0  0  0  0
   -3.3960   -1.2380    0.8790 H   0  0  0  0  0  0  0  0  0  0  0  0
   -1.4600   -0.3730    0.4320 C   0  0  0  0  0  0  0  0  0  0  0  0
   -0.9940   -1.3630    0.4320 H   0  0  0  0  0  0  0  0  0  0  0  0
   -1.3190    0.0590    1.4290 H   0  0  0  0  0  0  0  0  0  0  0  0
   -0.7820    0.5310   -0.6030 C   0  0  0  0  0  0  0  0  0  0  0  0
   -1.2950    1.5000   -0.6330 H   0  0  0  0  0  0  0  0  0  0  0  0
   -0.8900    0.0930   -1.6020 H   0  0  0  0  0  0  0  0  0  0  0  0
    0.7000    0.7900   -0.3150 C   0  0  0  0  0  0  0  0  0  0  0  0
    1.0640    1.5270   -1.0400 H   0  0  0  0  0  0  0  0  0  0  0  0
    0.8030    1.2500    0.6750 H   0  0  0  0  0  0  0  0  0  0  0  0
    1.5690   -0.4690   -0.4010 C   0  0  0  0  0  0  0  0  0  0  0  0
    1.2880   -1.1590    0.4010 H   0  0  0  0  0  0  0  0  0  0  0  0
    1.3920   -0.9790   -1.3540 H   0  0  0  0  0  0  0  0  0  0  0  0
    3.0560   -0.1510   -0.2770 C   0  0  0  0  0  0  0  0  0  0  0  0
    3.6540   -1.0630   -0.3780 H   0  0  0  0  0  0  0  0  0  0  0  0
    3.3750    0.5480   -1.0560 H   0  0  0  0  0  0  0  0  0  0  0  0
    3.3460    0.4330    0.9880 O   0  0  0  0  0  0  0  0  0  0  0  0
    3.0750   -0.2020    1.6730 H   0  0  0  0  0  0  0  0  0  0  0  0
  1  2  1  0  0  0  0
  1  3  1  0  0  0  0
  3  4  1  0  0  0  0
  3  5  1  0  0  0  0
  3  6  1  0  0  0  0
  6  7  1  0  0  0  0
  6  8  1  0  0  0  0
  6  9  1  0  0  0  0
  9 10  1  0  0  0  0
  9 11  1  0  0  0  0
  9 12  1  0  0  0  0
 12 13  1  0  0  0  0
 12 14  1  0  0  0  0
 12 15  1  0  0  0  0
 15 16  1  0  0  0  0
 15 17  1  0  0  0  0
 15 18  1  0  0  0  0
 18 19  1  0  0  0  0
 18 20  1  0  0  0  0
 18 21  1  0  0  0  0
 21 22  1  0  0  0  0
M  END
$$$$
