dan196.sdf
  MOE2004           3D

 21 20  0  0  0  0  0  0  0  0999 V2000
   -2.9590    0.1150    0.5350 C   0  0  0  0  0  0  0  0  0  0  0  0
   -3.5390    0.8330   -0.0530 H   0  0  0  0  0  0  0  0  0  0  0  0
   -3.6530   -0.6360    0.9260 H   0  0  0  0  0  0  0  0  0  0  0  0
   -2.5250    0.6380    1.3910 H   0  0  0  0  0  0  0  0  0  0  0  0
   -1.8920   -0.5560   -0.3190 C   0  0  0  0  0  0  0  0  0  0  0  0
   -1.3220   -1.2630    0.2930 H   0  0  0  0  0  0  0  0  0  0  0  0
   -2.3960   -1.1600   -1.0820 H   0  0  0  0  0  0  0  0  0  0  0  0
   -0.9560    0.4220   -1.0340 C   0  0  0  0  0  0  0  0  0  0  0  0
   -0.2610   -0.1250   -1.6770 H   0  0  0  0  0  0  0  0  0  0  0  0
   -1.5470    1.0590   -1.7000 H   0  0  0  0  0  0  0  0  0  0  0  0
    0.0000    1.5420    0.0520 S   0  0  0  0  0  0  0  0  0  0  0  0
    0.9530    0.3460    1.0580 C   0  0  0  0  0  0  0  0  0  0  0  0
    0.2550   -0.2460    1.6570 H   0  0  0  0  0  0  0  0  0  0  0  0
    1.5420    0.9340    1.7700 H   0  0  0  0  0  0  0  0  0  0  0  0
    1.8910   -0.5780    0.2770 C   0  0  0  0  0  0  0  0  0  0  0  0
    1.3230   -1.2360   -0.3880 H   0  0  0  0  0  0  0  0  0  0  0  0
    2.3900   -1.2370    0.9950 H   0  0  0  0  0  0  0  0  0  0  0  0
    2.9630    0.1520   -0.5200 C   0  0  0  0  0  0  0  0  0  0  0  0
    2.5340    0.7340   -1.3410 H   0  0  0  0  0  0  0  0  0  0  0  0
    3.5370    0.8290    0.1200 H   0  0  0  0  0  0  0  0  0  0  0  0
    3.6610   -0.5680   -0.9580 H   0  0  0  0  0  0  0  0  0  0  0  0
  1  2  1  0  0  0  0
  1  3  1  0  0  0  0
  1  4  1  0  0  0  0
  1  5  1  0  0  0  0
  5  6  1  0  0  0  0
  5  7  1  0  0  0  0
  5  8  1  0  0  0  0
  8  9  1  0  0  0  0
  8 10  1  0  0  0  0
  8 11  1  0  0  0  0
 11 12  1  0  0  0  0
 12 13  1  0  0  0  0
 12 14  1  0  0  0  0
 12 15  1  0  0  0  0
 15 16  1  0  0  0  0
 15 17  1  0  0  0  0
 15 18  1  0  0  0  0
 18 19  1  0  0  0  0
 18 20  1  0  0  0  0
 18 21  1  0  0  0  0
M  END
$$$$
