dan008.sdf
  -ISIS-            3D

 39 40  0  0  0  0  0  0  0  0  1 V2000
    1.0803    8.7088    5.3288 C   0  0  0  0  0
    2.0232    8.6867    6.5284 C   0  0  0  0  0
    3.4702    8.6547    6.0385 C   0  0  0  0  0
    4.4143    8.6324    7.2397 C   0  0  0  0  0
    5.8063    8.6017    6.7683 N   0  0  0  0  0
    6.8053    8.5785    7.6461 C   0  0  0  0  0
    6.5604    8.5829    8.8719 O   0  0  0  0  0
    8.0647    8.5506    7.2196 N   0  0  0  0  0
    8.5566    7.7695    6.2208 C   0  0  0  0  0
    9.8469    7.9962    6.0597 N   0  0  0  0  0
   10.2630    8.9674    6.9782 C   0  0  0  0  0
   11.4982    9.5712    7.2419 C   0  0  0  0  0
   11.6046   10.5360    8.2508 C   0  0  0  0  0
   10.4758   10.8969    8.9960 C   0  0  0  0  0
    9.2405   10.2931    8.7324 C   0  0  0  0  0
    9.1341    9.3283    7.7234 C   0  0  0  0  0
    7.8250    6.8833    5.4935 N   0  0  0  0  0
    7.8709    5.5863    5.7842 C   0  0  0  0  0
    8.5550    5.1996    6.6845 O   0  0  0  0  0
    7.1447    4.7066    5.0623 O   0  0  0  0  0
    7.2260    3.3224    5.4118 C   0  0  0  0  0
   12.5576   11.0018    8.4542 H   0  0  0  0  0
   10.5579   11.6411    9.7744 H   0  0  0  0  0
    8.3697   10.5715    9.3073 H   0  0  0  0  0
   12.3691    9.2928    6.6669 H   0  0  0  0  0
    7.2468    7.2102    4.7326 H   0  0  0  0  0
    6.0042    8.5981    5.7779 H   0  0  0  0  0
    4.2153    7.7478    7.8410 H   0  0  0  0  0
    4.2552    9.5241    7.8426 H   0  0  0  0  0
    6.5906    2.7422    4.7458 H   0  0  0  0  0
    8.2557    2.9842    5.3165 H   0  0  0  0  0
    6.8935    3.1875    6.4389 H   0  0  0  0  0
    3.6691    9.5393    5.4371 H   0  0  0  0  0
    3.6293    7.7630    5.4356 H   0  0  0  0  0
    1.8243    7.8020    7.1297 H   0  0  0  0  0
    1.8641    9.5783    7.1313 H   0  0  0  0  0
    0.0500    8.7316    5.6776 H   0  0  0  0  0
    1.2793    9.5935    4.7274 H   0  0  0  0  0
    1.2394    7.8172    4.7259 H   0  0  0  0  0
  1  2  1  0  0  0
  1 37  1  0  0  0
  1 38  1  0  0  0
  1 39  1  0  0  0
  2  3  1  0  0  0
  2 35  1  0  0  0
  2 36  1  0  0  0
  3  4  1  0  0  0
  3 33  1  0  0  0
  3 34  1  0  0  0
  4  5  1  0  0  0
  4 28  1  0  0  0
  4 29  1  0  0  0
  5  6  1  0  0  0
  5 27  1  0  0  0
  6  7  2  0  0  0
  6  8  1  0  0  0
  8  9  1  0  0  0
  8 16  1  0  0  0
  9 10  2  0  0  0
  9 17  1  0  0  0
 10 11  1  0  0  0
 11 12  4  0  0  0
 11 16  4  0  0  0
 12 13  4  0  0  0
 12 25  1  0  0  0
 13 14  4  0  0  0
 13 22  1  0  0  0
 14 15  4  0  0  0
 14 23  1  0  0  0
 15 16  4  0  0  0
 15 24  1  0  0  0
 17 18  1  0  0  0
 17 26  1  0  0  0
 18 19  2  0  0  0
 18 20  1  0  0  0
 20 21  1  0  0  0
 21 30  1  0  0  0
 21 31  1  0  0  0
 21 32  1  0  0  0
M  END
$$$$
